------- HydroDyn Input File ----------------------------------------------------
3MW (from NREL 5.0 MW offshore baseline floating platform HydroDyn input properties for the OC4 Semi-submersible.)
False            Echo           - Echo the input file data (flag)
---------------------- FLOATING PLATFORM --------------------------------------- [unused with WaveMod=6]
             0   PotMod         - Potential-flow model {0: none=no potential flow, 1: frequency-to-time-domain transforms based on WAMIT output, 2: fluid-impulse theory (FIT)} (switch)
             1   ExctnMod       - Wave-excitation model {0: no wave-excitation calculation, 1: DFT, 2: state-space} (switch) [only used when PotMod=1; STATE-SPACE REQUIRES *.ssexctn INPUT FILE]
             0   ExctnDisp      - Method of computing Wave Excitation {0: use undisplaced position, 1: use displaced position, 2: use low-pass filtered displaced position) [only used when PotMod=1 and ExctnMod>0 and SeaState's WaveMod>0]} (switch)
            10   ExctnCutOff    - Cutoff (corner) frequency of the low-pass time-filtered displaced position (Hz) [>0.0] [used only when PotMod=1, ExctnMod>0, and ExctnDisp=2]) [only used when PotMod=1 and ExctnMod>0 and SeaState's WaveMod>0]} (switch)
             0   PtfmYMod          - Model for large platform yaw offset {0: Static reference yaw offset based on PtfmRefY, 1: dynamic reference yaw offset based on low-pass filtering the PRP yaw motion with cutoff frequency PtfmYCutOff} (switch)
             0   PtfmRefY          - Constant (if PtfmYMod=0) or initial (if PtfmYMod=1) platform reference yaw offset (deg)
          0.01   PtfmYCutOff       - Cutoff frequency for the low-pass filtering of PRP yaw motion when PtfmYMod=1 [unused when PtfmYMod=0] (Hz)
            36   NExctnHdg      - Number of evenly distributed platform yaw/heading angles over the range of [-180, 180) deg for which the wave excitation shall be computed [only used when PtfmYMod=1] (-)
             1   RdtnMod        - Radiation memory-effect model {0: no memory-effect calculation, 1: convolution, 2: state-space} (switch) [only used when PotMod=1; STATE-SPACE REQUIRES *.ss INPUT FILE]
            60   RdtnTMax       - Analysis time for wave radiation kernel calculations (sec) [only used when PotMod=1 and RdtnMod>0; determines RdtnDOmega=Pi/RdtnTMax in the cosine transform; MAKE SURE THIS IS LONG ENOUGH FOR THE RADIATION IMPULSE RESPONSE FUNCTIONS TO DECAY TO NEAR-ZERO FOR THE GIVEN PLATFORM!]
		 0.005   RdtnDT         - Time step for wave radiation kernel calculations (sec) [only used when PotMod=1 and ExctnMod>0 or RdtnMod>0; DT<=RdtnDT<=0.1 recommended; determines RdtnOmegaMax=Pi/RdtnDT in the cosine transform]
             1   NBody          - Number of WAMIT bodies to be used (-) [>=1; only used when PotMod=1. If NBodyMod=1, the WAMIT data contains a vector of size 6*NBody x 1 and matrices of size 6*NBody x 6*NBody; if NBodyMod>1, there are NBody sets of WAMIT data each with a vector of size 6 x 1 and matrices of size 6 x 6]
             1   NBodyMod       - Body coupling model {1: include coupling terms between each body and NBody in HydroDyn equals NBODY in WAMIT, 2: neglect coupling terms between each body and NBODY=1 with XBODY=0 in WAMIT, 3: Neglect coupling terms between each body and NBODY=1 with XBODY=/0 in WAMIT} (switch) [only used when PotMod=1]
"./HydroData/ngf"    PotFile       - Root name of potential-flow model data; WAMIT output files containing the linear, nondimensionalized, hydrostatic restoring matrix (.hst), frequency-dependent hydrodynamic added mass matrix and damping matrix (.1), and frequency- and direction-dependent wave excitation force vector per unit wave amplitude (.3) (quoted string) [1 to NBody if NBodyMod>1] [MAKE SURE THE FREQUENCIES INHERENT IN THESE WAMIT FILES SPAN THE PHYSICALLY-SIGNIFICANT RANGE OF FREQUENCIES FOR THE GIVEN PLATFORM; THEY MUST CONTAIN THE ZERO- AND INFINITE-FREQUENCY LIMITS!]
             1   WAMITULEN      - Characteristic body length scale used to redimensionalize WAMIT output (meters) [1 to NBody if NBodyMod>1] [only used when PotMod=1]
             0   PtfmRefxt      - The xt offset of the body reference point(s) from (0,0,0) (meters) [1 to NBody] [only used when PotMod=1]
             0   PtfmRefyt      - The yt offset of the body reference point(s) from (0,0,0) (meters) [1 to NBody] [only used when PotMod=1]
             0   PtfmRefzt      - The zt offset of the body reference point(s) from (0,0,0) (meters) [1 to NBody] [only used when PotMod=1. If NBodyMod=2,PtfmRefzt=0.0]
             0   PtfmRefztRot   - The rotation about zt of the body reference frame(s) from xt/yt (degrees) [1 to NBody] [only used when PotMod=1]
       3804.19   PtfmVol0       - Displaced volume of water when the body is in its undisplaced position (m^3) [1 to NBody] [only used when PotMod=1; USE THE SAME VALUE COMPUTED BY WAMIT AS OUTPUT IN THE .OUT FILE!]
             0   PtfmCOBxt      - The xt offset of the center of buoyancy (COB) from (0,0) (meters) [1 to NBody] [only used when PotMod=1]
             0   PtfmCOByt      - The yt offset of the center of buoyancy (COB) from (0,0) (meters) [1 to NBody] [only used when PotMod=1]
             0   NAddDOF        - Number of additional generalized DOF of each WAMIT body (-) [1 to NBody] [>=0; =0 if NBody>1; only used when PotMod=1]
---------------------- 2ND-ORDER FLOATING PLATFORM FORCES ---------------------- [unused with WaveMod=0 or 6, or PotMod=0 or 2]
             0   MnDrift        - Mean-drift 2nd-order forces computed                                       {0: None; [7, 8, 9, 10, 11, or 12]: WAMIT file to use} [Only one of MnDrift, NewmanApp, or DiffQTF can be non-zero. If NBody>1, MnDrift  /=8]
             0   NewmanApp      - Mean- and slow-drift 2nd-order forces computed with Newman's approximation {0: None; [7, 8, 9, 10, 11, or 12]: WAMIT file to use} [Only one of MnDrift, NewmanApp, or DiffQTF can be non-zero. If NBody>1, NewmanApp/=8. Used only when WaveDirMod=0]
             0   DiffQTF        - Full difference-frequency 2nd-order forces computed with full QTF          {0: None; [10, 11, or 12]: WAMIT file to use}          [Only one of MnDrift, NewmanApp, or DiffQTF can be non-zero]
             0   SumQTF         - Full summation -frequency 2nd-order forces computed with full QTF          {0: None; [10, 11, or 12]: WAMIT file to use}
---------------------- PLATFORM ADDITIONAL STIFFNESS AND DAMPING  -------------- [unused with PotMod=0 or 2]
             0   AddF0    - Additional preload (N, N-m)  [If NBodyMod=1, one size 6*NBody x 1 vector; if NBodyMod>1, NBody size 6 x 1 vectors]
             0
             0
             0
             0
             0
             0             0             0             0             0             0   AddCLin  - Additional linear stiffness (N/m, N/rad, N-m/m, N-m/rad)  [If NBodyMod=1, one size 6*NBody x 6*NBody matrix; if NBodyMod>1, NBody size 6 x 6 matrices]
             0             0             0             0             0             0
             0             0             0             0             0             0
             0             0             0             0             0             0
             0             0             0             0             0             0
             0             0             0             0             0             0
             0             0             0             0             0             0   AddBLin  - Additional linear damping(N/(m/s), N/(rad/s), N-m/(m/s), N-m/(rad/s))  [If NBodyMod=1, one size 6*NBody x 6*NBody matrix; if NBodyMod>1, NBody size 6 x 6 matrices]
             0             0             0             0             0             0
             0             0             0             0             0             0
             0             0             0             0             0             0
             0             0             0             0             0             0
             0             0             0             0             0             0
             0             0             0             0             0             0   AddBQuad - Additional quadratic drag(N/(m/s)^2, N/(rad/s)^2, N-m(m/s)^2, N-m/(rad/s)^2)  [If NBodyMod=1, one size 6*NBody x 6*NBody matrix; if NBodyMod>1, NBody size 6 x 6 matrices]
             0             0             0             0             0             0
             0             0             0             0             0             0
             0             0             0             0             0             0
             0             0             0             0             0             0
             0             0             0             0             0             0
---------------------- STRIP THEORY OPTIONS --------------------------------------
             1   WaveDisp       - Method of computing Wave Kinematics {0: use undisplaced position, 1: use displaced position) } (switch)
             0   AMMod          - Method of computing distributed added-mass force. (0: Only and always on nodes below SWL at the undisplaced position. 1: Up to the instantaneous free surface) [overwrite to 0 when WaveStMod = 0 in SeaState]
             1   HstMod         - Method of computing hydrostatic loads. (0: Up to the still water level. 1: Up to the instantaneous free surface) [overwrite to 0 when WaveStMod = 0 in SeaState]
---------------------- AXIAL COEFFICIENTS --------------------------------------
             2   NAxCoef        - Number of axial coefficients (-)
AxCoefID  AxCd     AxCa     AxCp    AxFDMod   AxVnCOff  AxFDLoFSc
   (-)    (-)      (-)      (-)     (switch)   (Hz)       (-)
    1     0.00     0.00     1.00      0        0.00       1.00
    2    10.00     1.00     1.00      0        0.00       1.00
---------------------- MEMBER JOINTS -------------------------------------------
            41   NJoints        - Number of joints (-)   [must be exactly 0 or at least 2]
JointID   Jointxi     Jointyi     Jointzi  JointAxID   JointOvrlp   [JointOvrlp= 0: do nothing at joint, 1: eliminate overlaps by calculating super member]
   (-)     (m)         (m)         (m)        (-)       (switch)
1	0	0	-14	1	0
2	0	0	-12	1	0
13	0	0	9.3	1	0
15	0	0	11	1	0
16	12.99	22.5	-14	1	0
17	12.99	22.5	-12	1	0
28	12.99	22.5	9.3	1	0
30	12.99	22.5	11	1	0
31	-25.98	0	-14	1	0
32	-25.98	0	-12	1	0
43	-25.98	0	9.3	1	0
45	-25.98	0	11	1	0
46	12.99	-22.5	-14	1	0
47	12.99	-22.5	-12	1	0
58	12.99	-22.5	9.3	1	0
60	12.99	-22.5	11	1	0
61	8.66	20	9.3	1	0
73	-21.651	2.5	9.3	1	0
74	-21.651	-2.5	9.3	1	0
86	8.66	-20	9.3	1	0
87	12.99	-17.5	9.3	1	0
99	12.99	17.5	9.3	1	0
100	10.49	18.17	9.3	1	0
106	1.25	2.17	9.3	1	0
107	-2.25	0	9.3	1	0
113	-20.981	0	9.3	1	0
114	1.25	-2.17	9.3	1	0
120	10.49	-18.17	9.3	1	0
121	8.66	20	-12	1	0
133	-21.651	2.5	-12	1	0
134	-21.651	-2.5	-12	1	0
146	8.66	-20	-12	1	0
147	12.99	-17.5	-12	1	0
159	12.99	17.5	-12	1	0
160	10.49	18.17	-12	1	0
166	1.25	2.17	-12	1	0
167	-2.75	0	-12	1	0
173	-20.981	0	-12	1	0
174	1.25	-2.17	-12	1	0
180	10.49	-18.17	-12	1	0
229	0	0	12	1	0
---------------- CYLINDRICAL MEMBER CROSS-SECTION PROPERTIES -------------------
             3   NPropSetsCyl    - Number of cylindrical member property sets (-)
PropSetID    PropD         PropThck
   (-)        (m)            (m)
    1        5.00000        0.05000          ! Main Column
    2       10.00000        0.02000          ! Columns
    3        1.00000        0.01000          ! Cross
---------------- RECTANGULAR MEMBER CROSS-SECTION PROPERTIES -------------------
             0   NPropSetsRec    - Number of rectangular member property sets (-)
MPropSetID   PropA      PropB    PropThck
   (-)        (m)        (m)       (m)
-------- SIMPLE CYLINDRICAL-MEMBER HYDRODYNAMIC COEFFICIENTS (model 1) ---------
     SimplCd    SimplCdMG    SimplCa    SimplCaMG    SimplCp    SimplCpMG   SimplAxCd  SimplAxCdMG   SimplAxCa  SimplAxCaMG  SimplAxCp   SimplAxCpMG    SimplCb    SimplCbMG
       (-)         (-)         (-)         (-)         (-)         (-)         (-)         (-)         (-)         (-)         (-)         (-)            (-)         (-)
       0.56        0.00        0.00        0.00        1.00        1.00        0.00        0.00        0.00        0.00        1.00        1.00           1.00        1.00
-------- SIMPLE RECTANGULAR-MEMBER HYDRODYNAMIC COEFFICIENTS (model 1) ---------
     SimplCdA    SimplCdAMG    SimplCdB    SimplCdBMG    SimplCaA    SimplCaAMG    SimplCaB    SimplCaBMG    SimplCp    SimplCpMG   SimplAxCd  SimplAxCdMG   SimplAxCa  SimplAxCaMG  SimplAxCp   SimplAxCpMG  SimplCb  SimplCbMG
       (-)         (-)           (-)         (-)           (-)         (-)           (-)         (-)           (-)         (-)         (-)         (-)          (-)         (-)         (-)         (-)          (-)       (-)
       0.0         0.0           0.0         0.0           0.0         0.0           0.0         0.0           0.0         0.0         0.0         0.0          0.0         0.0         0.0         0.0          1.0       1.0
------ DEPTH-BASED CYLINDRICAL-MEMBER HYDRODYNAMIC COEFFICIENTS (model 2) -------
             0   NCoefDpthCyl    - Number of depth-dependent cylindrical member coefficients (-)
Dpth      DpthCd   DpthCdMG   DpthCa   DpthCaMG       DpthCp   DpthCpMG   DpthAxCd   DpthAxCdMG   DpthAxCa   DpthAxCaMG   DpthAxCp   DpthAxCpMG   DpthCb   DpthCbMG
(m)       (-)      (-)        (-)      (-)            (-)      (-)        (-)        (-)          (-)        (-)          (-)        (-)           (-)      (-)
------ DEPTH-BASED RECTANGULAR-MEMBER HYDRODYNAMIC COEFFICIENTS (model 2) -------
             0   NCoefDpthRec    - Number of depth-dependent rectangular member coefficients (-)
Dpth    DpthCdA   DpthCdAMG    DpthCdB   DpthCdBMG   DpthCaA   DpthCaAMG   DpthCaB   DpthCaBMG     DpthCp   DpthCpMG   DpthAxCd   DpthAxCdMG   DpthAxCa   DpthAxCaMG   DpthAxCp   DpthAxCpMG   DpthCb   DpthCbMG
(m)       (-)       (-)          (-)       (-)         (-)       (-)        (-)        (-)          (-)        (-)       (-)        (-)          (-)        (-)          (-)        (-)          (-)      (-)
------ MEMBER-BASED CYLINDRICAL-MEMBER HYDRODYNAMIC COEFFICIENTS (model 3) ------
            3   NCoefMembersCyl - Number of member-based cylindrical member coefficients (-)
MemberID    MemberCd1     MemberCd2    MemberCdMG1   MemberCdMG2    MemberCa1     MemberCa2    MemberCaMG1   MemberCaMG2    MemberCp1     MemberCp2    MemberCpMG1   MemberCpMG2   MemberAxCd1   MemberAxCd2  MemberAxCdMG1 MemberAxCdMG2  MemberAxCa1   MemberAxCa2  MemberAxCaMG1 MemberAxCaMG2  MemberAxCp1  MemberAxCp2   MemberAxCpMG1   MemberAxCpMG2    MemberCb1     MemberCb2    MemberCbMG1   MemberCbMG2
   (-)         (-)           (-)           (-)           (-)           (-)           (-)           (-)           (-)           (-)           (-)           (-)           (-)           (-)           (-)           (-)           (-)           (-)           (-)           (-)           (-)           (-)           (-)           (-)           (-)              (-)           (-)           (-)           (-)
    1          0.56          0.56          0.00          0.00          0.00          0.00          0.00          0.00          0.00          0.00          0.00          0.00          0.00          0.00          0.00          0.00          0.00          0.00          0.00          0.00          0.00          0.00          0.00          0.00             1.00          1.00          1.00          1.00           ! Main column
    2          0.61          0.61          0.00          0.00          0.00          0.00          0.00          0.00          0.00          0.00          0.00          0.00          0.00          0.00          0.00          0.00          0.00          0.00          0.00          0.00          0.00          0.00          0.00          0.00             1.00          1.00          1.00          1.00           ! Upper Column 1
    3          0.61          0.61          0.00          0.00          0.00          0.00          0.00          0.00          0.00          0.00          0.00          0.00          0.00          0.00          0.00          0.00          0.00          0.00          0.00          0.00          0.00          0.00          0.00          0.00             1.00          1.00          1.00          1.00           ! Upper Column 2
------ MEMBER-BASED RECTANGULAR-MEMBER HYDRODYNAMIC COEFFICIENTS (model 3) ------
            0   NCoefMembersRec - Number of member-based rectangular member coefficients (-)
MemberID    MemberCdA1     MemberCdA2    MemberCdAMG1   MemberCdAMG2    MemberCdB1     MemberCdB2    MemberCdBMG1   MemberCdBMG2    MemberCaA1     MemberCaA2    MemberCaAMG1   MemberCaAMG2    MemberCaB1     MemberCaB2    MemberCaBMG1   MemberCaBMG2    MemberCp1     MemberCp2    MemberCpMG1   MemberCpMG2   MemberAxCd1   MemberAxCd2  MemberAxCdMG1 MemberAxCdMG2  MemberAxCa1   MemberAxCa2  MemberAxCaMG1 MemberAxCaMG2  MemberAxCp1  MemberAxCp2   MemberAxCpMG1   MemberAxCpMG2   MemberCb1     MemberCb2    MemberCbMG1   MemberCbMG2
   (-)         (-)            (-)           (-)            (-)             (-)            (-)           (-)            (-)             (-)            (-)           (-)            (-)             (-)            (-)           (-)            (-)             (-)           (-)          (-)           (-)           (-)           (-)          (-)           (-)            (-)           (-)          (-)           (-)              (-)           (-)          (-)           (-)            (-)           (-)          (-)           (-)
-------------------- MEMBERS -------------------------------------------------
            41   NMembers       - Number of members (-)
MemberID  MJointID1  MJointID2  MPropSetID1  MPropSetID2  MSecGeom    MSpinOrient   MDivSize   MCoefMod  MHstLMod  PropPot   [MCoefMod=1: use simple coeff table, 2: use depth-based coeff table, 3: use member-based coeff table] [ PropPot/=0 if member is modeled with potential-flow theory]
  (-)        (-)        (-)         (-)          (-)      (switch)       (deg)        (m)      (switch)  (switch)  (flag)
1	1	15	1	1	1	0	2	1	1	False
15	16	30	2	2	1	0	2	1	1	False
29	31	45	2	2	1	0	2	1	1	False
43	46	60	2	2	1	0	2	1	1	False
57	61	73	3	3	1	0	2	1	1	False
69	74	86	3	3	1	0	10	1	1	False
81	87	99	3	3	1	0	10	1	1	False
93	100	106	3	3	1	0	10	1	1	False
99	107	113	3	3	1	0	10	1	1	False
105	114	120	3	3	1	0	10	1	1	False
111	28	61	3	3	1	0	10	1	1	False
112	28	99	3	3	1	0	10	1	1	False
113	28	100	3	3	1	0	10	1	1	False
114	43	73	3	3	1	0	10	1	1	False
115	43	74	3	3	1	0	10	1	1	False
116	43	113	3	3	1	0	10	1	1	False
117	58	87	3	3	1	0	10	1	1	False
118	58	120	3	3	1	0	10	1	1	False
119	13	106	3	3	1	0	10	1	1	False
120	13	107	3	3	1	0	10	1	1	False
121	13	114	3	3	1	0	10	1	1	False
122	17	121	3	3	1	0	10	1	1	False
123	121	133	3	3	1	0	10	1	1	False
135	133	32	3	3	1	0	10	1	1	False
136	47	147	3	3	1	0	10	1	1	False
137	147	159	3	3	1	0	10	1	1	False
149	159	17	3	3	1	0	10	1	1	False
150	17	160	3	3	1	0	10	1	1	False
151	160	166	3	3	1	0	10	1	1	False
157	166	2	3	3	1	0	10	1	1	False
158	2	167	3	3	1	0	10	1	1	False
159	167	173	3	3	1	0	10	1	1	False
165	173	32	3	3	1	0	10	1	1	False
166	2	174	3	3	1	0	10	1	1	False
167	174	180	3	3	1	0	10	1	1	False
173	180	47	3	3	1	0	10	1	1	False
174	32	134	3	3	1	0	10	1	1	False
175	134	146	3	3	1	0	10	1	1	False
187	146	47	3	3	1	0	10	1	1	False
194	15	229	1	1	1	0	10	1	1	False
223	86	58	3	3	1	0	10	1	1	False
---------------------- FILLED MEMBERS ------------------------------------------
             0   NFillGroups     - Number of filled member groups (-) [If FillDens = DEFAULT, then FillDens = WtrDens; FillFSLoc is related to MSL2SWL]
FillNumM FillMList             FillFSLoc     FillDens
(-)      (-)                   (m)           (kg/m^3)
!    3   2   3   4    -6.17           1025
!    3   5   6   7   -14.89           1025
---------------------- MARINE GROWTH -------------------------------------------
             0   NMGDepths      - Number of marine-growth depths specified (-)
MGDpth     MGThck       MGDens
(m)        (m)         (kg/m^3)
---------------------- MEMBER OUTPUT LIST --------------------------------------
             0   NMOutputs      - Number of member outputs (-) [must be <= 99]
MemberID   NOutLoc    NodeLocs [NOutLoc < 10; node locations are normalized distance from the start of the member, and must be >=0 and <= 1] [unused if NMOutputs=0]
  (-)        (-)        (-)
---------------------- JOINT OUTPUT LIST ---------------------------------------
             0   NJOutputs      - Number of joint outputs [Must be < 10]
             3,            20    JOutLst        - List of JointIDs which are to be output (-)[unused if NJOutputs=0]
---------------------- OUTPUT --------------------------------------------------
True             HDSum          - Output a summary file [flag]
False            OutAll         - Output all user-specified member and joint loads (only at each member end, not interior locations) [flag]
             2   OutSwtch       - Output requested channels to: [1=Hydrodyn.out, 2=GlueCode.out, 3=both files]
"G0"             OutFmt         - Output format for numerical results (quoted string) [not checked for validity!]
"A11"            OutSFmt        - Output format for header strings (quoted string) [not checked for validity!]
---------------------- OUTPUT CHANNELS -----------------------------------------
END of output channels and end of file. (the word "END" must appear in the first 3 columns of this line)
